Version 4
SHEET 1 1032 1092
WIRE -432 352 -816 352
WIRE -80 352 -432 352
WIRE 112 352 -80 352
WIRE -432 416 -432 352
WIRE -80 416 -80 352
WIRE 112 416 112 352
WIRE -816 480 -816 352
WIRE -816 480 -896 480
WIRE -816 512 -816 480
WIRE -208 512 -560 512
WIRE -80 512 -80 496
WIRE -80 512 -128 512
WIRE 16 512 -80 512
WIRE 16 544 16 512
WIRE -432 560 -432 496
WIRE -400 560 -432 560
WIRE -272 560 -320 560
WIRE -432 592 -432 560
WIRE -80 592 -80 512
WIRE -896 640 -896 480
WIRE -896 640 -1136 640
WIRE -784 640 -896 640
WIRE -560 640 -560 512
WIRE -496 640 -560 640
WIRE -272 640 -272 560
WIRE -256 640 -272 640
WIRE -144 640 -256 640
WIRE -784 688 -784 640
WIRE -784 688 -1008 688
WIRE 112 688 112 496
WIRE 160 688 112 688
WIRE 416 688 224 688
WIRE -704 704 -736 704
WIRE -256 704 -256 640
WIRE -256 704 -624 704
WIRE 160 720 80 720
WIRE 256 720 224 720
WIRE 416 720 416 688
WIRE -1008 736 -1008 688
WIRE -1136 752 -1136 720
WIRE -1040 752 -1136 752
WIRE -688 768 -976 768
WIRE -640 768 -688 768
WIRE -560 768 -560 640
WIRE 16 768 16 624
WIRE -1040 784 -1200 784
WIRE -688 784 -688 768
WIRE -1200 800 -1200 784
WIRE -1136 800 -1136 752
WIRE 256 832 256 720
WIRE 288 832 256 832
WIRE 416 832 416 800
WIRE 416 832 368 832
WIRE -432 848 -432 688
WIRE -256 848 -432 848
WIRE -80 848 -80 688
WIRE -80 848 -256 848
WIRE -1200 896 -1200 880
WIRE -1136 896 -1136 880
WIRE -1008 896 -1008 800
WIRE -688 896 -688 864
WIRE -256 896 -256 848
WIRE 80 896 80 816
WIRE 416 896 416 832
WIRE -736 960 -736 704
WIRE -736 1072 -736 1040
FLAG 416 896 0
FLAG -816 592 0
FLAG -1008 896 0
FLAG -1136 896 0
FLAG -1200 896 0
FLAG -256 896 0
FLAG -736 1072 0
FLAG 80 896 0
FLAG -688 896 0
SYMBOL res -448 400 R0
SYMATTR InstName R1
SYMATTR Value 470
SYMBOL res -96 400 R0
SYMATTR InstName R2
SYMATTR Value 470
SYMBOL res -224 528 R270
WINDOW 0 32 56 VTop 2
WINDOW 3 0 56 VBottom 2
SYMATTR InstName R4
SYMATTR Value 10k
SYMBOL res -416 576 R270
WINDOW 0 32 56 VTop 2
WINDOW 3 0 56 VBottom 2
SYMATTR InstName R3
SYMATTR Value 10k
SYMBOL npn -496 592 R0
SYMATTR InstName Q1
SYMATTR Value 2N3904
SYMBOL npn -144 592 R0
SYMATTR InstName Q2
SYMATTR Value 2N3904
SYMBOL res 272 848 R270
WINDOW 0 32 56 VTop 2
WINDOW 3 0 56 VBottom 2
SYMATTR InstName Rload
SYMATTR Value 100
SYMBOL voltage 416 704 R0
WINDOW 123 0 0 Left 2
WINDOW 39 0 0 Left 2
SYMATTR InstName V2
SYMATTR Value SINE(0 28.28 50)
SYMBOL voltage -816 496 R0
WINDOW 123 0 0 Left 2
WINDOW 39 0 0 Left 2
SYMATTR InstName V3
SYMATTR Value 5
SYMBOL Opamps\\opamp2 -1008 704 R0
SYMATTR InstName U2
SYMATTR Value TLC2272
SYMATTR SpiceModel TLC2272
SYMBOL res -1152 624 R0
SYMATTR InstName R5
SYMATTR Value 10000
SYMBOL res -1152 784 R0
SYMATTR InstName R6
SYMATTR Value 15000
SYMBOL voltage -1200 784 R0
WINDOW 123 0 0 Left 2
WINDOW 39 0 0 Left 2
SYMATTR InstName V4
SYMATTR Value PWL(0 0 150m 0 300m 5 400m 5 500m 0)
SYMBOL voltage -736 944 R0
WINDOW 123 0 0 Left 2
WINDOW 39 0 0 Left 2
SYMATTR InstName RESET
SYMATTR Value PWL(0 0 0 0 100m 5 120m 0)
SYMBOL res -656 784 R270
WINDOW 0 32 56 VTop 2
WINDOW 3 0 56 VBottom 2
SYMATTR InstName R7
SYMATTR Value 10k
SYMBOL res 96 400 R0
SYMATTR InstName R10
SYMATTR Value 220
SYMBOL npn 16 720 R0
SYMATTR InstName Q5
SYMATTR Value 2N3904
SYMBOL res 0 528 R0
SYMATTR InstName R8
SYMATTR Value 10k
SYMBOL res -704 768 R0
SYMATTR InstName R9
SYMATTR Value 100k
SYMBOL res -720 720 R270
WINDOW 0 32 56 VTop 2
WINDOW 3 0 56 VBottom 2
SYMATTR InstName R11
SYMATTR Value 10k
SYMBOL AutoGenerated\\MOC3020 192 704 R0
SYMATTR InstName U1
TEXT -1168 448 Left 2 !.inc diodes.lib
TEXT -1168 480 Left 2 !.tran 0 0.5 0 0.1 uic
TEXT -1168 416 Left 2 !.inc MOC3020.lib
TEXT -1168 384 Left 2 !.inc BT134-800.lib
TEXT -1168 352 Left 2 !.inc TLC2272.lib
TEXT -1168 328 Left 2 !.inc TL081.lib
