Version 4
SHEET 1 2916 1124
WIRE 608 -96 224 -96
WIRE 960 -96 672 -96
WIRE 96 32 32 32
WIRE 224 32 224 -96
WIRE 224 32 176 32
WIRE 816 32 224 32
WIRE 960 32 960 -96
WIRE 960 32 896 32
WIRE 224 160 224 32
WIRE 304 160 224 160
WIRE 608 160 512 160
WIRE 1392 176 1328 176
WIRE 304 192 96 144
WIRE 688 192 512 192
WIRE 816 192 688 192
WIRE 960 192 960 32
WIRE 960 192 896 192
WIRE 1264 192 960 192
WIRE 1440 208 1328 208
WIRE 1600 208 1440 208
WIRE -176 224 -432 224
WIRE 96 224 -112 224
WIRE 304 224 96 224
WIRE 592 224 512 224
WIRE 592 304 592 224
WIRE 1392 304 1392 176
WIRE 1392 304 1168 304
WIRE -432 352 -432 224
WIRE 96 368 96 224
WIRE 688 368 688 192
WIRE 960 368 960 192
WIRE 1440 368 1440 208
WIRE 1600 384 1600 208
WIRE -432 576 -432 432
WIRE 96 576 96 432
WIRE 688 576 688 432
WIRE 960 576 960 432
WIRE 1168 576 1168 304
WIRE 1440 576 1440 432
WIRE 1440 576 1168 576
WIRE 1600 576 1600 464
WIRE 1600 576 1440 576
FLAG -432 576 0
FLAG 96 576 0
FLAG 592 304 0
FLAG 688 576 0
FLAG 608 160 0
FLAG 32 32 0
FLAG 1168 576 0
FLAG 960 576 0
FLAG 96 144 0
SYMBOL voltage -432 336 R0
WINDOW 123 0 0 Left 2
WINDOW 39 0 0 Left 2
SYMATTR InstName 18_VAC
SYMATTR Value SINE(0 25.4558 50)
SYMBOL cap 80 368 R0
SYMATTR InstName C1
SYMATTR Value 220µ
SYMATTR SpiceLine V=50
SYMBOL ind 800 208 R270
WINDOW 0 32 56 VTop 2
WINDOW 3 5 56 VBottom 2
SYMATTR InstName L1
SYMATTR Value 68µ
SYMBOL cap 944 368 R0
SYMATTR InstName C2
SYMATTR Value 100µ
SYMATTR SpiceLine V=25
SYMBOL schottky 704 432 R180
WINDOW 0 24 64 Left 2
WINDOW 3 24 0 Left 2
SYMATTR InstName D2
SYMATTR Value RBR3M60A
SYMATTR Description Zener Diode
SYMATTR Type zener
SYMBOL res 800 48 R270
WINDOW 0 32 56 VTop 2
WINDOW 3 0 56 VBottom 2
SYMATTR InstName R1
SYMATTR Value 2101
SYMBOL res 80 48 R270
WINDOW 0 32 56 VTop 2
WINDOW 3 0 56 VBottom 2
SYMATTR InstName R2
SYMATTR Value 240
SYMBOL cap 608 -80 R270
WINDOW 0 32 32 VTop 2
WINDOW 3 0 32 VBottom 2
SYMATTR InstName C3
SYMATTR Value 15.35n
SYMBOL cap 1424 368 R0
SYMATTR InstName C4
SYMATTR Value 0.1µ
SYMBOL res 1584 368 R0
SYMATTR InstName R4
SYMATTR Value 500
SYMATTR SpiceLine tol=1 pwr=0.1
SYMBOL diode -176 240 R270
WINDOW 0 32 32 VTop 2
WINDOW 3 0 32 VBottom 2
SYMATTR InstName 1N4007
SYMBOL AutoGenerated\\LM2595_ADJ_TRANS 400 192 R0
SYMATTR InstName U2
SYMBOL AutoGenerated\\LM7805 1296 192 R0
SYMATTR InstName U1
TEXT -448 -32 Left 2 !.inc LM2595.lib
TEXT -448 0 Left 2 !.inc LM7805.lib
TEXT -464 936 Left 2 !.tran 0 0.1 0 0.05
TEXT -440 976 Left 2 !.inc diodes.lib
TEXT -432 1008 Left 2 !.inc zener.lib
