Version 4
SHEET 1 3252 1124
WIRE 480 -96 224 -96
WIRE 864 -96 544 -96
WIRE 96 32 32 32
WIRE 224 32 224 -96
WIRE 224 32 176 32
WIRE 720 32 224 32
WIRE 864 32 864 -96
WIRE 864 32 800 32
WIRE 1232 32 864 32
WIRE 1552 32 1232 32
WIRE 1552 80 1552 32
WIRE 224 160 224 32
WIRE 304 160 224 160
WIRE 608 160 512 160
WIRE 1200 176 1136 176
WIRE 304 192 96 192
WIRE 688 192 512 192
WIRE 720 192 688 192
WIRE 864 192 864 32
WIRE 864 192 800 192
WIRE 1072 192 864 192
WIRE 1552 192 1552 160
WIRE 1632 192 1552 192
WIRE 1760 192 1696 192
WIRE 1824 192 1760 192
WIRE 1936 192 1888 192
WIRE 2032 192 1936 192
WIRE 2160 192 2032 192
WIRE 2208 192 2160 192
WIRE 1248 208 1136 208
WIRE -48 224 -96 224
WIRE 96 224 16 224
WIRE 304 224 96 224
WIRE 592 224 512 224
WIRE 1488 240 1392 240
WIRE 2032 256 2032 192
WIRE 2160 256 2160 192
WIRE 1760 272 1760 192
WIRE 1936 272 1936 192
WIRE 592 304 592 224
WIRE 1200 304 1200 176
WIRE 1200 304 976 304
WIRE 1392 320 1392 240
WIRE 96 368 96 224
WIRE 688 368 688 192
WIRE 864 368 864 192
WIRE 1248 368 1248 208
WIRE 1552 400 1552 288
WIRE 1760 400 1760 336
WIRE 1936 400 1936 336
WIRE 2032 400 2032 320
WIRE 2160 400 2160 336
WIRE 1392 448 1392 400
WIRE 96 576 96 432
WIRE 688 576 688 432
WIRE 864 576 864 432
WIRE 976 576 976 304
WIRE 1248 576 1248 432
FLAG 96 576 0
FLAG 592 304 0
FLAG 688 576 0
FLAG 608 160 0
FLAG 32 32 0
FLAG 976 576 0
FLAG 864 576 0
FLAG 96 192 0
FLAG 1552 400 0
FLAG 1936 400 0
FLAG 2032 400 0
FLAG 2160 400 0
FLAG 1760 400 0
FLAG 1392 448 5V_10kHz
FLAG -96 224 18VAC
FLAG 2208 192 -5VDC
FLAG 1232 32 12VDC
FLAG 1248 208 5VDC
FLAG 1248 576 0
SYMBOL cap 80 368 R0
SYMATTR InstName C1
SYMATTR Value 220µ
SYMATTR SpiceLine V=50
SYMBOL ind 704 208 R270
WINDOW 0 32 56 VTop 2
WINDOW 3 5 56 VBottom 2
SYMATTR InstName L1
SYMATTR Value 68µ
SYMBOL cap 848 368 R0
SYMATTR InstName C2
SYMATTR Value 100µ
SYMATTR SpiceLine V=25
SYMBOL schottky 704 432 R180
WINDOW 0 24 64 Left 2
WINDOW 3 24 0 Left 2
SYMATTR InstName D2
SYMATTR Value RBR3M60A
SYMATTR Description Zener Diode
SYMATTR Type zener
SYMBOL res 704 48 R270
WINDOW 0 32 56 VTop 2
WINDOW 3 0 56 VBottom 2
SYMATTR InstName R1
SYMATTR Value 2101
SYMBOL res 80 48 R270
WINDOW 0 32 56 VTop 2
WINDOW 3 0 56 VBottom 2
SYMATTR InstName R2
SYMATTR Value 240
SYMBOL cap 480 -80 R270
WINDOW 0 32 32 VTop 2
WINDOW 3 0 32 VBottom 2
SYMATTR InstName C3
SYMATTR Value 15.35n
SYMBOL cap 1232 368 R0
SYMATTR InstName C4
SYMATTR Value 0.1µ
SYMBOL diode -48 240 R270
WINDOW 0 32 32 VTop 2
WINDOW 3 0 32 VBottom 2
SYMATTR InstName 1N4007
SYMBOL npn 1488 192 R0
SYMATTR InstName Q1
SYMATTR Value 2N3904
SYMBOL res 1408 416 R180
WINDOW 0 36 76 Left 2
WINDOW 3 36 40 Left 2
SYMATTR InstName R3
SYMATTR Value 1000
SYMBOL cap 1632 208 R270
WINDOW 0 32 32 VTop 2
WINDOW 3 0 32 VBottom 2
SYMATTR InstName C5
SYMATTR Value 10µ
SYMBOL diode 1744 272 R0
SYMATTR InstName D1
SYMATTR Value D1N4007
SYMBOL diode 1888 176 R90
WINDOW 0 0 32 VBottom 2
WINDOW 3 32 32 VTop 2
SYMATTR InstName D3
SYMATTR Value D1N4007
SYMBOL cap 1920 272 R0
SYMATTR InstName C6
SYMATTR Value 470µ
SYMBOL zener 2016 256 R0
SYMATTR InstName D4
SYMATTR Value TZX5V1B
SYMBOL res 2144 240 R0
SYMATTR InstName R5
SYMATTR Value 560
SYMBOL res 1536 64 R0
SYMATTR InstName R6
SYMATTR Value 216
SYMBOL AutoGenerated\\LM7805 1104 192 R0
SYMATTR InstName U3
SYMBOL AutoGenerated\\LM2595_ADJ_TRANS 400 192 R0
SYMATTR InstName U4
TEXT -168 -24 Left 2 !.inc LM2595.lib
TEXT -168 8 Left 2 !.inc LM7805.lib
TEXT -168 104 Left 2 !.tran 0 0.1 0 0.05
TEXT -168 40 Left 2 !.inc diodes.lib
TEXT -168 72 Left 2 !.inc zener.lib
