.model TZX5V1B D Is=5u Cjo=100p BV=5 IBV=5m
