* 1N4004 MCE General Purpose Diode 8-16-95
* 400V  1 A  4us  Si Diode pkg:DO-41 1,2
.MODEL D1N4004 D(IS=2.55E-9 RS=0.042 N=1.75 TT=5.76E-6 CJO=1.85E-11 
+ VJ=0.75 M=0.333 BV=400 IBV=3.95E-5 )

* 1N4007 MCE General Purpose Diode
.MODEL D1N4007 D(IS=7.02767e-09 RS=0.0341512 N=1.80803 EG=1.05743
+XTI=5 BV=1000 IBV=5e-08 CJO=1e-11
+VJ=0.7 M=0.5 FC=0.5 TT=1e-07
+KF=0 AF=1 )

* OA91 Ge Diode
.model DOA91 D(Is=19.43u N=2.986 Rs=65.98 Ikf=0 Xti=3 Eg=1.11 Cjo=1.326p
+             M=.3333 Vj=.75 Fc=.5 Isr=2.787u Nr=1.954 Bv=100 Ibv=100u Tt=5n)

* Typical RED,GREEN,YELLOW,AMBER GaAs LED: Vf=2.1V Vr=4V If=40mA trr=3uS
.MODEL LED D (IS=93.1P RS=42M N=4.61 BV=4 IBV=10U
+ CJO=2.97P VJ=.75 M=.333 TT=4.32U)