Version 4
SHEET 1 1460 680
WIRE 112 32 -32 32
WIRE 352 48 352 0
WIRE -32 96 -32 32
WIRE -608 128 -672 128
WIRE -496 128 -544 128
WIRE 112 144 112 32
WIRE -672 176 -672 128
WIRE 272 192 224 192
WIRE 352 192 352 128
WIRE 352 192 272 192
WIRE -32 208 -32 160
WIRE -32 208 -496 208
WIRE 144 208 -32 208
WIRE 544 224 272 224
WIRE 144 240 -32 240
WIRE 320 256 272 256
WIRE -672 320 -672 256
WIRE 320 336 320 256
WIRE 384 336 320 336
WIRE 592 336 448 336
WIRE 688 336 592 336
WIRE 688 416 688 336
WIRE -32 432 -32 240
WIRE 592 432 592 336
WIRE 592 432 -32 432
FLAG -496 288 0
FLAG 544 224 0
FLAG 352 0 0
FLAG 592 496 0
FLAG -32 32 0
FLAG 688 496 0
FLAG -672 400 0
SYMBOL res -512 192 R0
SYMATTR InstName R2
SYMATTR Value 68000
SYMBOL res -512 112 R0
SYMATTR InstName R1
SYMATTR Value 429000
SYMBOL voltage -672 160 R0
WINDOW 123 0 0 Left 2
WINDOW 39 0 0 Left 2
SYMATTR InstName V1
SYMATTR Value SINE(0 31 50)
SYMBOL voltage 352 144 R180
WINDOW 0 24 96 Left 2
WINDOW 3 24 16 Left 2
WINDOW 123 0 0 Left 2
WINDOW 39 0 0 Left 2
SYMATTR InstName V2
SYMATTR Value 5
SYMBOL cap 576 432 R0
SYMATTR InstName C1
SYMATTR Value 10µ
SYMBOL diode -608 144 R270
WINDOW 0 32 32 VTop 2
WINDOW 3 0 32 VBottom 2
SYMATTR InstName D3
SYMATTR Value D1N4007
SYMBOL diode 384 352 R270
WINDOW 0 32 32 VTop 2
WINDOW 3 0 32 VBottom 2
SYMATTR InstName D1
SYMATTR Value D1N4007
SYMBOL res 672 400 R0
SYMATTR InstName R3
SYMATTR Value 1500000
SYMBOL AutoGenerated\\TLC2272 208 224 R0
SYMATTR InstName U1
SYMBOL voltage -672 304 R0
WINDOW 123 0 0 Left 2
WINDOW 39 0 0 Left 2
SYMATTR InstName V3
SYMATTR Value PWL(0 0 65m 0 66m 5 66m 5)
TEXT -448 520 Left 2 !.tran 0 0.2 0 0.05
TEXT -760 56 Left 2 !.inc diodes.lib
TEXT -760 24 Left 2 !.inc TLC2272.lib
