Version 4
SHEET 1 3252 1124
WIRE 608 -96 224 -96
WIRE 960 -96 672 -96
WIRE 96 32 32 32
WIRE 224 32 224 -96
WIRE 224 32 176 32
WIRE 816 32 224 32
WIRE 960 32 960 -96
WIRE 960 32 896 32
WIRE 1888 32 960 32
WIRE 224 160 224 32
WIRE 304 160 224 160
WIRE 608 160 512 160
WIRE 1888 160 1888 32
WIRE 2336 160 1888 160
WIRE 1392 176 1328 176
WIRE 2336 176 2336 160
WIRE 304 192 96 144
WIRE 688 192 512 192
WIRE 816 192 688 192
WIRE 960 192 960 32
WIRE 960 192 896 192
WIRE 1264 192 960 192
WIRE 1440 208 1328 208
WIRE -176 224 -432 224
WIRE 96 224 -112 224
WIRE 304 224 96 224
WIRE 592 224 512 224
WIRE 2336 288 2336 256
WIRE 2512 288 2336 288
WIRE 2640 288 2576 288
WIRE 2752 288 2640 288
WIRE 2896 288 2816 288
WIRE 3024 288 2896 288
WIRE 3152 288 3024 288
WIRE 3248 288 3152 288
WIRE 592 304 592 224
WIRE 1392 304 1392 176
WIRE 1392 304 1168 304
WIRE 1984 336 1984 320
WIRE 2096 336 1984 336
WIRE 2272 336 2176 336
WIRE -432 352 -432 224
WIRE 3024 352 3024 288
WIRE 3152 352 3152 288
WIRE 96 368 96 224
WIRE 688 368 688 192
WIRE 960 368 960 192
WIRE 1440 368 1440 208
WIRE 2640 368 2640 288
WIRE 2896 368 2896 288
WIRE 1984 448 1984 336
WIRE 2336 496 2336 384
WIRE 2640 496 2640 432
WIRE 2896 496 2896 432
WIRE 3024 496 3024 416
WIRE 3152 496 3152 432
WIRE -432 576 -432 432
WIRE 96 576 96 432
WIRE 688 576 688 432
WIRE 960 576 960 432
WIRE 1168 576 1168 304
WIRE 1440 576 1440 432
WIRE 1440 576 1168 576
WIRE 1984 688 1984 528
FLAG -432 576 0
FLAG 96 576 0
FLAG 592 304 0
FLAG 688 576 0
FLAG 608 160 0
FLAG 32 32 0
FLAG 1168 576 0
FLAG 960 576 0
FLAG 96 144 0
FLAG 2336 496 0
FLAG 2896 496 0
FLAG 3024 496 0
FLAG 3152 496 0
FLAG 2640 496 0
FLAG 1984 688 0
SYMBOL voltage -432 336 R0
WINDOW 123 0 0 Left 2
WINDOW 39 0 0 Left 2
SYMATTR InstName 18_VAC
SYMATTR Value SINE(0 25.4558 50)
SYMBOL cap 80 368 R0
SYMATTR InstName C1
SYMATTR Value 220µ
SYMATTR SpiceLine V=50
SYMBOL ind 800 208 R270
WINDOW 0 32 56 VTop 2
WINDOW 3 5 56 VBottom 2
SYMATTR InstName L1
SYMATTR Value 68µ
SYMBOL cap 944 368 R0
SYMATTR InstName C2
SYMATTR Value 100µ
SYMATTR SpiceLine V=25
SYMBOL schottky 704 432 R180
WINDOW 0 24 64 Left 2
WINDOW 3 24 0 Left 2
SYMATTR InstName D2
SYMATTR Value RBR3M60A
SYMATTR Description Zener Diode
SYMATTR Type zener
SYMBOL res 800 48 R270
WINDOW 0 32 56 VTop 2
WINDOW 3 0 56 VBottom 2
SYMATTR InstName R1
SYMATTR Value 2101
SYMBOL res 80 48 R270
WINDOW 0 32 56 VTop 2
WINDOW 3 0 56 VBottom 2
SYMATTR InstName R2
SYMATTR Value 240
SYMBOL cap 608 -80 R270
WINDOW 0 32 32 VTop 2
WINDOW 3 0 32 VBottom 2
SYMATTR InstName C3
SYMATTR Value 15.35n
SYMBOL cap 1424 368 R0
SYMATTR InstName C4
SYMATTR Value 0.1µ
SYMBOL diode -176 240 R270
WINDOW 0 32 32 VTop 2
WINDOW 3 0 32 VBottom 2
SYMATTR InstName 1N4007
SYMBOL AutoGenerated\\LM2595_ADJ_TRANS 400 192 R0
SYMATTR InstName U2
SYMBOL AutoGenerated\\LM7805 1296 192 R0
SYMATTR InstName U1
SYMBOL voltage 1984 432 R0
WINDOW 123 0 0 Left 2
WINDOW 39 0 0 Left 2
SYMATTR InstName V1
SYMATTR Value PULSE(0 5 0 0.0000001 0.0000001 0.00005 0.0001)
SYMBOL npn 2272 288 R0
SYMATTR InstName Q1
SYMATTR Value 2N3904
SYMBOL res 2080 352 R270
WINDOW 0 32 56 VTop 2
WINDOW 3 0 56 VBottom 2
SYMATTR InstName R3
SYMATTR Value 1000
SYMBOL cap 2512 304 R270
WINDOW 0 32 32 VTop 2
WINDOW 3 0 32 VBottom 2
SYMATTR InstName C5
SYMATTR Value 10µ
SYMBOL diode 2624 368 R0
SYMATTR InstName D1
SYMATTR Value D1N4007
SYMBOL diode 2816 272 R90
WINDOW 0 0 32 VBottom 2
WINDOW 3 32 32 VTop 2
SYMATTR InstName D3
SYMATTR Value D1N4007
SYMBOL cap 2880 368 R0
SYMATTR InstName C6
SYMATTR Value 470µ
SYMBOL zener 3008 352 R0
SYMATTR InstName D4
SYMATTR Value TZX5V1B
SYMBOL res 3136 336 R0
SYMATTR InstName R5
SYMATTR Value 560
SYMBOL res 2320 160 R0
SYMATTR InstName R6
SYMATTR Value 216
TEXT -448 -32 Left 2 !.inc LM2595.lib
TEXT -448 0 Left 2 !.inc LM7805.lib
TEXT -464 936 Left 2 !.tran 0 0.1 0 0.05
TEXT -440 976 Left 2 !.inc diodes.lib
TEXT -432 1008 Left 2 !.inc zener.lib
